
OS:Version,
  {c5d77aca-064d-4687-af1d-6db3ce5fc138}, !- Handle
  2.4.1;                                  !- Version Identifier

OS:SpaceType,
  {b6e1b869-e6af-4de8-9205-b7925d5c6890}, !- Handle
  Automotive facility WholeBuilding,      !- Name
  ,                                       !- Default Construction Set Name
  {603be0ae-0786-420b-b613-51d3756c97a3}, !- Default Schedule Set Name
  ,                                       !- Group Rendering Name
  {cd6a2ca7-3c87-453e-a461-e8707df31dcf}, !- Design Specification Outdoor Air Object Name
  Automotive facility,                    !- Standards Building Type
  WholeBuilding;                          !- Standards Space Type

OS:People:Definition,
  {4a36d62e-4e0a-47a9-bfb9-943569851ffd}, !- Handle
  Automotive facility WholeBuilding People Definition, !- Name
  People/Area,                            !- Number of People Calculation Method
  ,                                       !- Number of People {people}
  0.0500181710813649,                     !- People per Space Floor Area {person/m2}
  ,                                       !- Space Floor Area per Person {m2/person}
  0.3;                                    !- Fraction Radiant

OS:People,
  {51ee609a-b806-4dd3-8a2a-71ca55e7efa5}, !- Handle
  Automotive facility WholeBuilding People, !- Name
  {4a36d62e-4e0a-47a9-bfb9-943569851ffd}, !- People Definition Name
  {b6e1b869-e6af-4de8-9205-b7925d5c6890}, !- Space or SpaceType Name
  ,                                       !- Number of People Schedule Name
  ,                                       !- Activity Level Schedule Name
  ,                                       !- Surface Name/Angle Factor List Name
  {582b4f72-4cb8-45e7-aa88-9c260554924a}, !- Work Efficiency Schedule Name
  {697bf05e-73e6-4089-b5d6-ae61c5c74e6b}, !- Clothing Insulation Schedule Name
  {97397574-0f95-4cb9-a870-c04b2344aa73}, !- Air Velocity Schedule Name
  1;                                      !- Multiplier

OS:Schedule:Ruleset,
  {697bf05e-73e6-4089-b5d6-ae61c5c74e6b}, !- Handle
  Clothing Schedule,                      !- Name
  {5d8ec657-0669-4eec-893f-0abd2ddd02fb}, !- Schedule Type Limits Name
  {d469d25d-af86-4507-afbc-8feed9712ec3}; !- Default Day Schedule Name

OS:Schedule:Day,
  {d469d25d-af86-4507-afbc-8feed9712ec3}, !- Handle
  Clothing Schedule Default Winter Clothes, !- Name
  {5d8ec657-0669-4eec-893f-0abd2ddd02fb}, !- Schedule Type Limits Name
  ,                                       !- Interpolate to Timestep
  24,                                     !- Hour 1
  0,                                      !- Minute 1
  1;                                      !- Value Until Time 1

OS:Schedule:Rule,
  {a3884380-1cd5-48fb-8873-c867ef15f244}, !- Handle
  Schedule Rule 1,                        !- Name
  {697bf05e-73e6-4089-b5d6-ae61c5c74e6b}, !- Schedule Ruleset Name
  0,                                      !- Rule Order
  {532a97b5-1890-4026-9c91-30d3b750ddd4}, !- Day Schedule Name
  ,                                       !- Apply Sunday
  ,                                       !- Apply Monday
  ,                                       !- Apply Tuesday
  ,                                       !- Apply Wednesday
  ,                                       !- Apply Thursday
  ,                                       !- Apply Friday
  ,                                       !- Apply Saturday
  ,                                       !- Apply Holiday
  DateRange,                              !- Date Specification Type
  5,                                      !- Start Month
  1,                                      !- Start Day
  9,                                      !- End Month
  30;                                     !- End Day

OS:Schedule:Day,
  {532a97b5-1890-4026-9c91-30d3b750ddd4}, !- Handle
  Clothing Schedule Summer Clothes,       !- Name
  {5d8ec657-0669-4eec-893f-0abd2ddd02fb}, !- Schedule Type Limits Name
  ,                                       !- Interpolate to Timestep
  24,                                     !- Hour 1
  0,                                      !- Minute 1
  0.5;                                    !- Value Until Time 1

OS:ScheduleTypeLimits,
  {5d8ec657-0669-4eec-893f-0abd2ddd02fb}, !- Handle
  ClothingInsulation,                     !- Name
  0,                                      !- Lower Limit Value
  ,                                       !- Upper Limit Value
  Continuous,                             !- Numeric Type
  ClothingInsulation;                     !- Unit Type

OS:Schedule:Ruleset,
  {97397574-0f95-4cb9-a870-c04b2344aa73}, !- Handle
  Air Velocity Schedule,                  !- Name
  {937d4202-5de9-4cb6-b0f2-8d131b05d542}, !- Schedule Type Limits Name
  {23223712-8ddb-4401-a65c-b10e2148d753}; !- Default Day Schedule Name

OS:Schedule:Day,
  {23223712-8ddb-4401-a65c-b10e2148d753}, !- Handle
  Air Velocity Schedule Default,          !- Name
  {937d4202-5de9-4cb6-b0f2-8d131b05d542}, !- Schedule Type Limits Name
  ,                                       !- Interpolate to Timestep
  24,                                     !- Hour 1
  0,                                      !- Minute 1
  0.2;                                    !- Value Until Time 1

OS:ScheduleTypeLimits,
  {937d4202-5de9-4cb6-b0f2-8d131b05d542}, !- Handle
  Velocity,                               !- Name
  0,                                      !- Lower Limit Value
  ,                                       !- Upper Limit Value
  Continuous,                             !- Numeric Type
  Velocity;                               !- Unit Type

OS:Schedule:Ruleset,
  {582b4f72-4cb8-45e7-aa88-9c260554924a}, !- Handle
  Work Efficiency Schedule,               !- Name
  {98cd33f5-9d18-4fc6-9db7-903f61e27437}, !- Schedule Type Limits Name
  {1243f235-d41b-46dc-bbb9-39941a9e5797}; !- Default Day Schedule Name

OS:Schedule:Day,
  {1243f235-d41b-46dc-bbb9-39941a9e5797}, !- Handle
  Work Efficiency Schedule Default,       !- Name
  {98cd33f5-9d18-4fc6-9db7-903f61e27437}, !- Schedule Type Limits Name
  ,                                       !- Interpolate to Timestep
  24,                                     !- Hour 1
  0,                                      !- Minute 1
  0;                                      !- Value Until Time 1

OS:ScheduleTypeLimits,
  {98cd33f5-9d18-4fc6-9db7-903f61e27437}, !- Handle
  Fractional,                             !- Name
  0,                                      !- Lower Limit Value
  1,                                      !- Upper Limit Value
  Continuous;                             !- Numeric Type

OS:Lights:Definition,
  {fac20bf1-0908-4615-98f8-ba0e7bfa9264}, !- Handle
  Automotive facility WholeBuilding Lights Definition, !- Name
  Watts/Area,                             !- Design Level Calculation Method
  ,                                       !- Lighting Level {W}
  8.60312542599476,                       !- Watts per Space Floor Area {W/m2}
  ,                                       !- Watts per Person {W/person}
  0.5,                                    !- Fraction Radiant
  0.2;                                    !- Fraction Visible

OS:Lights,
  {55497891-893b-4620-a2c6-ad9f55267ae3}, !- Handle
  Automotive facility WholeBuilding Lights, !- Name
  {fac20bf1-0908-4615-98f8-ba0e7bfa9264}, !- Lights Definition Name
  {b6e1b869-e6af-4de8-9205-b7925d5c6890}, !- Space or SpaceType Name
  ,                                       !- Schedule Name
  1,                                      !- Fraction Replaceable
  ,                                       !- Multiplier
  General;                                !- End-Use Subcategory

OS:ElectricEquipment:Definition,
  {a5337b21-87e4-416a-9864-d07ab65507af}, !- Handle
  Automotive facility WholeBuilding Elec Equip Definition, !- Name
  Watts/Area,                             !- Design Level Calculation Method
  ,                                       !- Design Level {W}
  5.00181710813649,                       !- Watts per Space Floor Area {W/m2}
  ,                                       !- Watts per Person {W/person}
  ,                                       !- Fraction Latent
  0.5;                                    !- Fraction Radiant

OS:ElectricEquipment,
  {2685309f-2a28-4d20-89e3-12e5f8ef34cb}, !- Handle
  Automotive facility WholeBuilding Elec Equip, !- Name
  {a5337b21-87e4-416a-9864-d07ab65507af}, !- Electric Equipment Definition Name
  {b6e1b869-e6af-4de8-9205-b7925d5c6890}, !- Space or SpaceType Name
  ,                                       !- Schedule Name
  ,                                       !- Multiplier
  General;                                !- End-Use Subcategory

OS:DesignSpecification:OutdoorAir,
  {cd6a2ca7-3c87-453e-a461-e8707df31dcf}, !- Handle
  Automotive facility WholeBuilding Ventilation, !- Name
  Sum,                                    !- Outdoor Air Method
  ,                                       !- Outdoor Air Flow per Person {m3/s-person}
  0.00114808,                             !- Outdoor Air Flow per Floor Area {m3/s-m2}
  ,                                       !- Outdoor Air Flow Rate {m3/s}
  ,                                       !- Outdoor Air Flow Air Changes per Hour {1/hr}
  ;                                       !- Outdoor Air Flow Rate Fraction Schedule Name

OS:SpaceInfiltration:DesignFlowRate,
  {cc991543-953e-447f-8cd5-261a81e0b4b9}, !- Handle
  Automotive facility WholeBuilding Infiltration, !- Name
  {b6e1b869-e6af-4de8-9205-b7925d5c6890}, !- Space or SpaceType Name
  ,                                       !- Schedule Name
  Flow/ExteriorArea,                      !- Design Flow Rate Calculation Method
  ,                                       !- Design Flow Rate {m3/s}
  ,                                       !- Flow per Space Floor Area {m3/s-m2}
  0.000250063,                            !- Flow per Exterior Surface Area {m3/s-m2}
  ,                                       !- Air Changes per Hour {1/hr}
  ,                                       !- Constant Term Coefficient
  ,                                       !- Temperature Term Coefficient
  ,                                       !- Velocity Term Coefficient
  ;                                       !- Velocity Squared Term Coefficient

OS:DefaultScheduleSet,
  {603be0ae-0786-420b-b613-51d3756c97a3}, !- Handle
  Automotive facility WholeBuilding Schedule Set, !- Name
  ,                                       !- Hours of Operation Schedule Name
  {bf82057e-ca53-4bb8-88f2-6ca74c6edc57}, !- Number of People Schedule Name
  {7a3c56a2-8f8d-4788-91c2-d29e949da3da}, !- People Activity Level Schedule Name
  {2d5db530-9d4d-419d-b90f-0ec1da4457c0}, !- Lighting Schedule Name
  {3405c98c-0539-4bf7-b8f4-0e352e351780}, !- Electric Equipment Schedule Name
  ,                                       !- Gas Equipment Schedule Name
  ,                                       !- Hot Water Equipment Schedule Name
  {2eeffb4e-8cde-42da-84d1-8f61d3be9c24}, !- Infiltration Schedule Name
  ,                                       !- Steam Equipment Schedule Name
  ;                                       !- Other Equipment Schedule Name

OS:Schedule:Ruleset,
  {bf82057e-ca53-4bb8-88f2-6ca74c6edc57}, !- Handle
  NECB-E-Occupancy,                       !- Name
  {98cd33f5-9d18-4fc6-9db7-903f61e27437}, !- Schedule Type Limits Name
  {a46d7c9b-2125-418f-8a40-0f2358bc59d6}; !- Default Day Schedule Name

OS:Schedule:Day,
  {a46d7c9b-2125-418f-8a40-0f2358bc59d6}, !- Handle
  NECB-E-Occupancy Default,               !- Name
  {98cd33f5-9d18-4fc6-9db7-903f61e27437}, !- Schedule Type Limits Name
  ,                                       !- Interpolate to Timestep
  8,                                      !- Hour 1
  0,                                      !- Minute 1
  0,                                      !- Value Until Time 1
  9,                                      !- Hour 2
  0,                                      !- Minute 2
  0.2,                                    !- Value Until Time 2
  10,                                     !- Hour 3
  0,                                      !- Minute 3
  0.7,                                    !- Value Until Time 3
  14,                                     !- Hour 4
  0,                                      !- Minute 4
  0.9,                                    !- Value Until Time 4
  15,                                     !- Hour 5
  0,                                      !- Minute 5
  0.5,                                    !- Value Until Time 5
  16,                                     !- Hour 6
  0,                                      !- Minute 6
  0.9,                                    !- Value Until Time 6
  18,                                     !- Hour 7
  0,                                      !- Minute 7
  0.8,                                    !- Value Until Time 7
  19,                                     !- Hour 8
  0,                                      !- Minute 8
  0.2,                                    !- Value Until Time 8
  24,                                     !- Hour 9
  0,                                      !- Minute 9
  0;                                      !- Value Until Time 9

OS:Schedule:Rule,
  {6606d393-0f04-47c6-95c6-303dc2bd39ff}, !- Handle
  Schedule Rule 2,                        !- Name
  {bf82057e-ca53-4bb8-88f2-6ca74c6edc57}, !- Schedule Ruleset Name
  2,                                      !- Rule Order
  {08c71eec-ff41-4c62-9168-17f21d349953}, !- Day Schedule Name
  ,                                       !- Apply Sunday
  Yes,                                    !- Apply Monday
  Yes,                                    !- Apply Tuesday
  Yes,                                    !- Apply Wednesday
  Yes,                                    !- Apply Thursday
  Yes,                                    !- Apply Friday
  ,                                       !- Apply Saturday
  ,                                       !- Apply Holiday
  DateRange,                              !- Date Specification Type
  1,                                      !- Start Month
  1,                                      !- Start Day
  12,                                     !- End Month
  31;                                     !- End Day

OS:Schedule:Day,
  {08c71eec-ff41-4c62-9168-17f21d349953}, !- Handle
  NECB-E-Occupancy Default|Wkdy Day,      !- Name
  {98cd33f5-9d18-4fc6-9db7-903f61e27437}, !- Schedule Type Limits Name
  ,                                       !- Interpolate to Timestep
  8,                                      !- Hour 1
  0,                                      !- Minute 1
  0,                                      !- Value Until Time 1
  9,                                      !- Hour 2
  0,                                      !- Minute 2
  0.2,                                    !- Value Until Time 2
  10,                                     !- Hour 3
  0,                                      !- Minute 3
  0.7,                                    !- Value Until Time 3
  14,                                     !- Hour 4
  0,                                      !- Minute 4
  0.9,                                    !- Value Until Time 4
  15,                                     !- Hour 5
  0,                                      !- Minute 5
  0.5,                                    !- Value Until Time 5
  16,                                     !- Hour 6
  0,                                      !- Minute 6
  0.9,                                    !- Value Until Time 6
  18,                                     !- Hour 7
  0,                                      !- Minute 7
  0.8,                                    !- Value Until Time 7
  19,                                     !- Hour 8
  0,                                      !- Minute 8
  0.2,                                    !- Value Until Time 8
  24,                                     !- Hour 9
  0,                                      !- Minute 9
  0;                                      !- Value Until Time 9

OS:Schedule:Rule,
  {e7160af1-fb28-47d8-9ee4-667935a5006c}, !- Handle
  Schedule Rule 3,                        !- Name
  {bf82057e-ca53-4bb8-88f2-6ca74c6edc57}, !- Schedule Ruleset Name
  1,                                      !- Rule Order
  {725ed25e-bdad-48f1-828d-55eb13f504a2}, !- Day Schedule Name
  ,                                       !- Apply Sunday
  ,                                       !- Apply Monday
  ,                                       !- Apply Tuesday
  ,                                       !- Apply Wednesday
  ,                                       !- Apply Thursday
  ,                                       !- Apply Friday
  Yes,                                    !- Apply Saturday
  ,                                       !- Apply Holiday
  DateRange,                              !- Date Specification Type
  1,                                      !- Start Month
  1,                                      !- Start Day
  12,                                     !- End Month
  31;                                     !- End Day

OS:Schedule:Day,
  {725ed25e-bdad-48f1-828d-55eb13f504a2}, !- Handle
  NECB-E-Occupancy Sat Day,               !- Name
  {98cd33f5-9d18-4fc6-9db7-903f61e27437}, !- Schedule Type Limits Name
  ,                                       !- Interpolate to Timestep
  9,                                      !- Hour 1
  0,                                      !- Minute 1
  0,                                      !- Value Until Time 1
  13,                                     !- Hour 2
  0,                                      !- Minute 2
  0.2,                                    !- Value Until Time 2
  17,                                     !- Hour 3
  0,                                      !- Minute 3
  0.1,                                    !- Value Until Time 3
  24,                                     !- Hour 4
  0,                                      !- Minute 4
  0;                                      !- Value Until Time 4

OS:Schedule:Rule,
  {f59d2c45-9b8a-4abb-9a11-6a44d47861dd}, !- Handle
  Schedule Rule 4,                        !- Name
  {bf82057e-ca53-4bb8-88f2-6ca74c6edc57}, !- Schedule Ruleset Name
  0,                                      !- Rule Order
  {714b965b-a093-4826-a2c7-835cf3769c52}, !- Day Schedule Name
  Yes,                                    !- Apply Sunday
  ,                                       !- Apply Monday
  ,                                       !- Apply Tuesday
  ,                                       !- Apply Wednesday
  ,                                       !- Apply Thursday
  ,                                       !- Apply Friday
  ,                                       !- Apply Saturday
  ,                                       !- Apply Holiday
  DateRange,                              !- Date Specification Type
  1,                                      !- Start Month
  1,                                      !- Start Day
  12,                                     !- End Month
  31;                                     !- End Day

OS:Schedule:Day,
  {714b965b-a093-4826-a2c7-835cf3769c52}, !- Handle
  NECB-E-Occupancy Sun|Hol Day,           !- Name
  {98cd33f5-9d18-4fc6-9db7-903f61e27437}, !- Schedule Type Limits Name
  ,                                       !- Interpolate to Timestep
  24,                                     !- Hour 1
  0,                                      !- Minute 1
  0;                                      !- Value Until Time 1

OS:Schedule:Ruleset,
  {7a3c56a2-8f8d-4788-91c2-d29e949da3da}, !- Handle
  NECB-Activity,                          !- Name
  {eef0dece-fe81-4362-b9d9-35dd8d317c76}, !- Schedule Type Limits Name
  {228f3ea8-5fdc-489c-9c35-e85ef7863d05}, !- Default Day Schedule Name
  {3d9646df-2737-4b3c-9004-45d16e60698a}, !- Summer Design Day Schedule Name
  {f9c0fd44-da59-4ffe-8b20-855a139e9395}; !- Winter Design Day Schedule Name

OS:Schedule:Day,
  {228f3ea8-5fdc-489c-9c35-e85ef7863d05}, !- Handle
  NECB-Activity Default,                  !- Name
  {eef0dece-fe81-4362-b9d9-35dd8d317c76}, !- Schedule Type Limits Name
  ,                                       !- Interpolate to Timestep
  24,                                     !- Hour 1
  0,                                      !- Minute 1
  130;                                    !- Value Until Time 1

OS:Schedule:Day,
  {29729a79-1cbe-47a5-9cf3-9cffbf63101e}, !- Handle
  Schedule Day 1,                         !- Name
  ,                                       !- Schedule Type Limits Name
  ,                                       !- Interpolate to Timestep
  24,                                     !- Hour 1
  0,                                      !- Minute 1
  0;                                      !- Value Until Time 1

OS:Schedule:Day,
  {f9c0fd44-da59-4ffe-8b20-855a139e9395}, !- Handle
  NECB-Activity Winter Design Day,        !- Name
  {eef0dece-fe81-4362-b9d9-35dd8d317c76}, !- Schedule Type Limits Name
  ,                                       !- Interpolate to Timestep
  24,                                     !- Hour 1
  0,                                      !- Minute 1
  130;                                    !- Value Until Time 1

OS:Schedule:Day,
  {585e2fff-32df-403d-93b2-5a633a0b0c04}, !- Handle
  Schedule Day 2,                         !- Name
  ,                                       !- Schedule Type Limits Name
  ,                                       !- Interpolate to Timestep
  24,                                     !- Hour 1
  0,                                      !- Minute 1
  0;                                      !- Value Until Time 1

OS:Schedule:Day,
  {3d9646df-2737-4b3c-9004-45d16e60698a}, !- Handle
  NECB-Activity Summer Design Day,        !- Name
  {eef0dece-fe81-4362-b9d9-35dd8d317c76}, !- Schedule Type Limits Name
  ,                                       !- Interpolate to Timestep
  24,                                     !- Hour 1
  0,                                      !- Minute 1
  130;                                    !- Value Until Time 1

OS:ScheduleTypeLimits,
  {eef0dece-fe81-4362-b9d9-35dd8d317c76}, !- Handle
  ActivityLevel,                          !- Name
  0,                                      !- Lower Limit Value
  ,                                       !- Upper Limit Value
  Continuous,                             !- Numeric Type
  ActivityLevel;                          !- Unit Type

OS:Schedule:Ruleset,
  {2d5db530-9d4d-419d-b90f-0ec1da4457c0}, !- Handle
  NECB-E-Lighting,                        !- Name
  {98cd33f5-9d18-4fc6-9db7-903f61e27437}, !- Schedule Type Limits Name
  {d5780375-f1f5-4132-b533-fd8f573a4294}; !- Default Day Schedule Name

OS:Schedule:Day,
  {d5780375-f1f5-4132-b533-fd8f573a4294}, !- Handle
  NECB-E-Lighting Default,                !- Name
  {98cd33f5-9d18-4fc6-9db7-903f61e27437}, !- Schedule Type Limits Name
  ,                                       !- Interpolate to Timestep
  8,                                      !- Hour 1
  0,                                      !- Minute 1
  0.05,                                   !- Value Until Time 1
  9,                                      !- Hour 2
  0,                                      !- Minute 2
  0.4,                                    !- Value Until Time 2
  10,                                     !- Hour 3
  0,                                      !- Minute 3
  0.7,                                    !- Value Until Time 3
  18,                                     !- Hour 4
  0,                                      !- Minute 4
  0.9,                                    !- Value Until Time 4
  19,                                     !- Hour 5
  0,                                      !- Minute 5
  0.4,                                    !- Value Until Time 5
  24,                                     !- Hour 6
  0,                                      !- Minute 6
  0.05;                                   !- Value Until Time 6

OS:Schedule:Rule,
  {418b9e64-daba-4312-a90b-34ecbfad3ce8}, !- Handle
  Schedule Rule 5,                        !- Name
  {2d5db530-9d4d-419d-b90f-0ec1da4457c0}, !- Schedule Ruleset Name
  2,                                      !- Rule Order
  {5cc22364-ee5f-4305-bf2d-452f174179e4}, !- Day Schedule Name
  ,                                       !- Apply Sunday
  Yes,                                    !- Apply Monday
  Yes,                                    !- Apply Tuesday
  Yes,                                    !- Apply Wednesday
  Yes,                                    !- Apply Thursday
  Yes,                                    !- Apply Friday
  ,                                       !- Apply Saturday
  ,                                       !- Apply Holiday
  DateRange,                              !- Date Specification Type
  1,                                      !- Start Month
  1,                                      !- Start Day
  12,                                     !- End Month
  31;                                     !- End Day

OS:Schedule:Day,
  {5cc22364-ee5f-4305-bf2d-452f174179e4}, !- Handle
  NECB-E-Lighting Default|Wkdy Day,       !- Name
  {98cd33f5-9d18-4fc6-9db7-903f61e27437}, !- Schedule Type Limits Name
  ,                                       !- Interpolate to Timestep
  8,                                      !- Hour 1
  0,                                      !- Minute 1
  0.05,                                   !- Value Until Time 1
  9,                                      !- Hour 2
  0,                                      !- Minute 2
  0.4,                                    !- Value Until Time 2
  10,                                     !- Hour 3
  0,                                      !- Minute 3
  0.7,                                    !- Value Until Time 3
  18,                                     !- Hour 4
  0,                                      !- Minute 4
  0.9,                                    !- Value Until Time 4
  19,                                     !- Hour 5
  0,                                      !- Minute 5
  0.4,                                    !- Value Until Time 5
  24,                                     !- Hour 6
  0,                                      !- Minute 6
  0.05;                                   !- Value Until Time 6

OS:Schedule:Rule,
  {9ca34b88-9ea1-4a67-8acd-eb7da7d504f6}, !- Handle
  Schedule Rule 6,                        !- Name
  {2d5db530-9d4d-419d-b90f-0ec1da4457c0}, !- Schedule Ruleset Name
  1,                                      !- Rule Order
  {15b3f1ef-ba74-4c65-aa4c-51126a9a30b3}, !- Day Schedule Name
  ,                                       !- Apply Sunday
  ,                                       !- Apply Monday
  ,                                       !- Apply Tuesday
  ,                                       !- Apply Wednesday
  ,                                       !- Apply Thursday
  ,                                       !- Apply Friday
  Yes,                                    !- Apply Saturday
  ,                                       !- Apply Holiday
  DateRange,                              !- Date Specification Type
  1,                                      !- Start Month
  1,                                      !- Start Day
  12,                                     !- End Month
  31;                                     !- End Day

OS:Schedule:Day,
  {15b3f1ef-ba74-4c65-aa4c-51126a9a30b3}, !- Handle
  NECB-E-Lighting Sat Day,                !- Name
  {98cd33f5-9d18-4fc6-9db7-903f61e27437}, !- Schedule Type Limits Name
  ,                                       !- Interpolate to Timestep
  9,                                      !- Hour 1
  0,                                      !- Minute 1
  0.05,                                   !- Value Until Time 1
  10,                                     !- Hour 2
  0,                                      !- Minute 2
  0.5,                                    !- Value Until Time 2
  15,                                     !- Hour 3
  0,                                      !- Minute 3
  0.9,                                    !- Value Until Time 3
  16,                                     !- Hour 4
  0,                                      !- Minute 4
  0.7,                                    !- Value Until Time 4
  17,                                     !- Hour 5
  0,                                      !- Minute 5
  0.5,                                    !- Value Until Time 5
  24,                                     !- Hour 6
  0,                                      !- Minute 6
  0.05;                                   !- Value Until Time 6

OS:Schedule:Rule,
  {ccb125be-2884-4094-9853-d5a056a4c91f}, !- Handle
  Schedule Rule 7,                        !- Name
  {2d5db530-9d4d-419d-b90f-0ec1da4457c0}, !- Schedule Ruleset Name
  0,                                      !- Rule Order
  {67d3c781-d58f-4423-adf5-e28bb6136840}, !- Day Schedule Name
  Yes,                                    !- Apply Sunday
  ,                                       !- Apply Monday
  ,                                       !- Apply Tuesday
  ,                                       !- Apply Wednesday
  ,                                       !- Apply Thursday
  ,                                       !- Apply Friday
  ,                                       !- Apply Saturday
  ,                                       !- Apply Holiday
  DateRange,                              !- Date Specification Type
  1,                                      !- Start Month
  1,                                      !- Start Day
  12,                                     !- End Month
  31;                                     !- End Day

OS:Schedule:Day,
  {67d3c781-d58f-4423-adf5-e28bb6136840}, !- Handle
  NECB-E-Lighting Sun|Hol Day,            !- Name