
OS:Version,
  {6648dd1f-8283-4170-8a98-605634e25c9c}, !- Handle
  2.4.1;                                  !- Version Identifier

OS:SpaceType,
  {d1162d8a-a51c-46f7-b10e-f61466ce8e0e}, !- Handle
  Automotive facility WholeBuilding,      !- Name
  ,                                       !- Default Construction Set Name
  {dcca19ec-fbdf-469a-b689-de7fc4b8e25d}, !- Default Schedule Set Name
  ,                                       !- Group Rendering Name
  {013f4134-f4c9-4480-8291-df2d1643c108}, !- Design Specification Outdoor Air Object Name
  Automotive facility,                    !- Standards Building Type
  WholeBuilding;                          !- Standards Space Type

OS:People:Definition,
  {5808e859-6e69-4a87-9d66-aa62041b6d6b}, !- Handle
  Automotive facility WholeBuilding People Definition, !- Name
  People/Area,                            !- Number of People Calculation Method
  ,                                       !- Number of People {people}
  0.0500521834377002,                     !- People per Space Floor Area {person/m2}
  ,                                       !- Space Floor Area per Person {m2/person}
  0.3;                                    !- Fraction Radiant

OS:People,
  {d24553a5-d2d8-46bf-96e8-62e5f8ee2872}, !- Handle
  Automotive facility WholeBuilding People, !- Name
  {5808e859-6e69-4a87-9d66-aa62041b6d6b}, !- People Definition Name
  {d1162d8a-a51c-46f7-b10e-f61466ce8e0e}, !- Space or SpaceType Name
  ,                                       !- Number of People Schedule Name
  ,                                       !- Activity Level Schedule Name
  ,                                       !- Surface Name/Angle Factor List Name
  {1cd7ff1f-840e-4677-aa9d-7bb4b160e90a}, !- Work Efficiency Schedule Name
  {247abd0d-4c4a-4bc6-8789-330b76b162bf}, !- Clothing Insulation Schedule Name
  {ca1d35d2-3723-4f6a-8b17-fe475f69c5a8}, !- Air Velocity Schedule Name
  1;                                      !- Multiplier

OS:Schedule:Ruleset,
  {247abd0d-4c4a-4bc6-8789-330b76b162bf}, !- Handle
  Clothing Schedule,                      !- Name
  {a901f6b0-db6c-4b5a-bcf8-1c9e94e0410e}, !- Schedule Type Limits Name
  {447ced2c-01dc-4fdd-b2da-225523bc12be}; !- Default Day Schedule Name

OS:Schedule:Day,
  {447ced2c-01dc-4fdd-b2da-225523bc12be}, !- Handle
  Clothing Schedule Default Winter Clothes, !- Name
  {a901f6b0-db6c-4b5a-bcf8-1c9e94e0410e}, !- Schedule Type Limits Name
  ,                                       !- Interpolate to Timestep
  24,                                     !- Hour 1
  0,                                      !- Minute 1
  1;                                      !- Value Until Time 1

OS:Schedule:Rule,
  {9591264d-7650-4873-a0a4-2ff2fb5c0522}, !- Handle
  Schedule Rule 1,                        !- Name
  {247abd0d-4c4a-4bc6-8789-330b76b162bf}, !- Schedule Ruleset Name
  0,                                      !- Rule Order
  {45232011-638b-4e99-85ee-4a50e5585d32}, !- Day Schedule Name
  ,                                       !- Apply Sunday
  ,                                       !- Apply Monday
  ,                                       !- Apply Tuesday
  ,                                       !- Apply Wednesday
  ,                                       !- Apply Thursday
  ,                                       !- Apply Friday
  ,                                       !- Apply Saturday
  ,                                       !- Apply Holiday
  DateRange,                              !- Date Specification Type
  5,                                      !- Start Month
  1,                                      !- Start Day
  9,                                      !- End Month
  30;                                     !- End Day

OS:Schedule:Day,
  {45232011-638b-4e99-85ee-4a50e5585d32}, !- Handle
  Clothing Schedule Summer Clothes,       !- Name
  {a901f6b0-db6c-4b5a-bcf8-1c9e94e0410e}, !- Schedule Type Limits Name
  ,                                       !- Interpolate to Timestep
  24,                                     !- Hour 1
  0,                                      !- Minute 1
  0.5;                                    !- Value Until Time 1

OS:ScheduleTypeLimits,
  {a901f6b0-db6c-4b5a-bcf8-1c9e94e0410e}, !- Handle
  ClothingInsulation,                     !- Name
  0,                                      !- Lower Limit Value
  ,                                       !- Upper Limit Value
  Continuous,                             !- Numeric Type
  ClothingInsulation;                     !- Unit Type

OS:Schedule:Ruleset,
  {ca1d35d2-3723-4f6a-8b17-fe475f69c5a8}, !- Handle
  Air Velocity Schedule,                  !- Name
  {b4be8d41-7925-48c2-b7cd-ea999cf7e42e}, !- Schedule Type Limits Name
  {86810558-cb1e-40ad-bce4-f329a9626648}; !- Default Day Schedule Name

OS:Schedule:Day,
  {86810558-cb1e-40ad-bce4-f329a9626648}, !- Handle
  Air Velocity Schedule Default,          !- Name
  {b4be8d41-7925-48c2-b7cd-ea999cf7e42e}, !- Schedule Type Limits Name
  ,                                       !- Interpolate to Timestep
  24,                                     !- Hour 1
  0,                                      !- Minute 1
  0.2;                                    !- Value Until Time 1

OS:ScheduleTypeLimits,
  {b4be8d41-7925-48c2-b7cd-ea999cf7e42e}, !- Handle
  Velocity,                               !- Name
  0,                                      !- Lower Limit Value
  ,                                       !- Upper Limit Value
  Continuous,                             !- Numeric Type
  Velocity;                               !- Unit Type

OS:Schedule:Ruleset,
  {1cd7ff1f-840e-4677-aa9d-7bb4b160e90a}, !- Handle
  Work Efficiency Schedule,               !- Name
  {987292dd-1d76-438d-b4cf-73465fcb4d59}, !- Schedule Type Limits Name
  {5ef6150c-2617-491d-80fa-9f38612ca498}; !- Default Day Schedule Name

OS:Schedule:Day,
  {5ef6150c-2617-491d-80fa-9f38612ca498}, !- Handle
  Work Efficiency Schedule Default,       !- Name
  {987292dd-1d76-438d-b4cf-73465fcb4d59}, !- Schedule Type Limits Name
  ,                                       !- Interpolate to Timestep
  24,                                     !- Hour 1
  0,                                      !- Minute 1
  0;                                      !- Value Until Time 1

OS:ScheduleTypeLimits,
  {987292dd-1d76-438d-b4cf-73465fcb4d59}, !- Handle
  Fractional,                             !- Name
  0,                                      !- Lower Limit Value
  1,                                      !- Upper Limit Value
  Continuous;                             !- Numeric Type

OS:Lights:Definition,
  {0e2f70ee-968d-44a6-8f0e-1b2ebc7af712}, !- Handle
  Automotive facility WholeBuilding Lights Definition, !- Name
  Watts/Area,                             !- Design Level Calculation Method
  ,                                       !- Lighting Level {W}
  8.79992676235352,                       !- Watts per Space Floor Area {W/m2}
  ,                                       !- Watts per Person {W/person}
  0.5,                                    !- Fraction Radiant
  0.2;                                    !- Fraction Visible

OS:Lights,
  {b88a8777-e2c2-4222-911e-1587922985e0}, !- Handle
  Automotive facility WholeBuilding Lights, !- Name
  {0e2f70ee-968d-44a6-8f0e-1b2ebc7af712}, !- Lights Definition Name
  {d1162d8a-a51c-46f7-b10e-f61466ce8e0e}, !- Space or SpaceType Name
  ,                                       !- Schedule Name
  1,                                      !- Fraction Replaceable
  ,                                       !- Multiplier
  General;                                !- End-Use Subcategory

OS:ElectricEquipment:Definition,
  {16ae479a-be3c-4af2-8591-99bc46fffc81}, !- Handle
  Automotive facility WholeBuilding Elec Equip Definition, !- Name
  Watts/Area,                             !- Design Level Calculation Method
  ,                                       !- Design Level {W}
  4.99995838672233,                       !- Watts per Space Floor Area {W/m2}
  ,                                       !- Watts per Person {W/person}
  ,                                       !- Fraction Latent
  0.5;                                    !- Fraction Radiant

OS:ElectricEquipment,
  {4e8ce619-4a75-48f9-bd81-498d96189b23}, !- Handle
  Automotive facility WholeBuilding Elec Equip, !- Name
  {16ae479a-be3c-4af2-8591-99bc46fffc81}, !- Electric Equipment Definition Name
  {d1162d8a-a51c-46f7-b10e-f61466ce8e0e}, !- Space or SpaceType Name
  ,                                       !- Schedule Name
  ,                                       !- Multiplier
  General;                                !- End-Use Subcategory

OS:DesignSpecification:OutdoorAir,
  {013f4134-f4c9-4480-8291-df2d1643c108}, !- Handle
  Automotive facility WholeBuilding Ventilation, !- Name
  Sum,                                    !- Outdoor Air Method
  ,                                       !- Outdoor Air Flow per Person {m3/s-person}
  0.00114808,                             !- Outdoor Air Flow per Floor Area {m3/s-m2}
  ,                                       !- Outdoor Air Flow Rate {m3/s}
  ,                                       !- Outdoor Air Flow Air Changes per Hour {1/hr}
  ;                                       !- Outdoor Air Flow Rate Fraction Schedule Name

OS:SpaceInfiltration:DesignFlowRate,
  {bcd0d705-9ad5-4821-a087-b86ad5d2f392}, !- Handle
  Automotive facility WholeBuilding Infiltration, !- Name
  {d1162d8a-a51c-46f7-b10e-f61466ce8e0e}, !- Space or SpaceType Name
  ,                                       !- Schedule Name
  Flow/ExteriorArea,                      !- Design Flow Rate Calculation Method
  ,                                       !- Design Flow Rate {m3/s}
  ,                                       !- Flow per Space Floor Area {m3/s-m2}
  0.000250063,                            !- Flow per Exterior Surface Area {m3/s-m2}
  ,                                       !- Air Changes per Hour {1/hr}
  ,                                       !- Constant Term Coefficient
  ,                                       !- Temperature Term Coefficient
  ,                                       !- Velocity Term Coefficient
  ;                                       !- Velocity Squared Term Coefficient

OS:DefaultScheduleSet,
  {dcca19ec-fbdf-469a-b689-de7fc4b8e25d}, !- Handle
  Automotive facility WholeBuilding Schedule Set, !- Name
  ,                                       !- Hours of Operation Schedule Name
  {73400ff3-28a6-4d69-b3eb-eed88226d716}, !- Number of People Schedule Name
  {38698cfb-ef04-46b3-b458-d63c06756bc4}, !- People Activity Level Schedule Name
  {9370f880-f30c-4915-bf76-d57842d2a10b}, !- Lighting Schedule Name
  {77ebda68-faf2-4a1b-8172-fbe9c25b5258}, !- Electric Equipment Schedule Name
  ,                                       !- Gas Equipment Schedule Name
  ,                                       !- Hot Water Equipment Schedule Name
  {6e103bf6-8201-46a4-88b4-67a9793d2085}, !- Infiltration Schedule Name
  ,                                       !- Steam Equipment Schedule Name
  ;                                       !- Other Equipment Schedule Name

OS:Schedule:Ruleset,
  {73400ff3-28a6-4d69-b3eb-eed88226d716}, !- Handle
  NECB-E-Occupancy,                       !- Name
  {987292dd-1d76-438d-b4cf-73465fcb4d59}, !- Schedule Type Limits Name
  {999cf4ea-4142-4364-9975-ce9eb2c03fb5}; !- Default Day Schedule Name

OS:Schedule:Day,
  {999cf4ea-4142-4364-9975-ce9eb2c03fb5}, !- Handle
  NECB-E-Occupancy Default,               !- Name
  {987292dd-1d76-438d-b4cf-73465fcb4d59}, !- Schedule Type Limits Name
  ,                                       !- Interpolate to Timestep
  8,                                      !- Hour 1
  0,                                      !- Minute 1
  0,                                      !- Value Until Time 1
  9,                                      !- Hour 2
  0,                                      !- Minute 2
  0.2,                                    !- Value Until Time 2
  10,                                     !- Hour 3
  0,                                      !- Minute 3
  0.7,                                    !- Value Until Time 3
  14,                                     !- Hour 4
  0,                                      !- Minute 4
  0.9,                                    !- Value Until Time 4
  15,                                     !- Hour 5
  0,                                      !- Minute 5
  0.5,                                    !- Value Until Time 5
  16,                                     !- Hour 6
  0,                                      !- Minute 6
  0.9,                                    !- Value Until Time 6
  18,                                     !- Hour 7
  0,                                      !- Minute 7
  0.8,                                    !- Value Until Time 7
  19,                                     !- Hour 8
  0,                                      !- Minute 8
  0.2,                                    !- Value Until Time 8
  24,                                     !- Hour 9
  0,                                      !- Minute 9
  0;                                      !- Value Until Time 9

OS:Schedule:Rule,
  {72a55092-99fa-42a9-bda3-648001398322}, !- Handle
  Schedule Rule 2,                        !- Name
  {73400ff3-28a6-4d69-b3eb-eed88226d716}, !- Schedule Ruleset Name
  2,                                      !- Rule Order
  {bbd6e783-5ffb-4bbe-8755-3d7239a5e804}, !- Day Schedule Name
  ,                                       !- Apply Sunday
  Yes,                                    !- Apply Monday
  Yes,                                    !- Apply Tuesday
  Yes,                                    !- Apply Wednesday
  Yes,                                    !- Apply Thursday
  Yes,                                    !- Apply Friday
  ,                                       !- Apply Saturday
  ,                                       !- Apply Holiday
  DateRange,                              !- Date Specification Type
  1,                                      !- Start Month
  1,                                      !- Start Day
  12,                                     !- End Month
  31;                                     !- End Day

OS:Schedule:Day,
  {bbd6e783-5ffb-4bbe-8755-3d7239a5e804}, !- Handle
  NECB-E-Occupancy Default|Wkdy Day,      !- Name
  {987292dd-1d76-438d-b4cf-73465fcb4d59}, !- Schedule Type Limits Name
  ,                                       !- Interpolate to Timestep
  8,                                      !- Hour 1
  0,                                      !- Minute 1
  0,                                      !- Value Until Time 1
  9,                                      !- Hour 2
  0,                                      !- Minute 2
  0.2,                                    !- Value Until Time 2
  10,                                     !- Hour 3
  0,                                      !- Minute 3
  0.7,                                    !- Value Until Time 3
  14,                                     !- Hour 4
  0,                                      !- Minute 4
  0.9,                                    !- Value Until Time 4
  15,                                     !- Hour 5
  0,                                      !- Minute 5
  0.5,                                    !- Value Until Time 5
  16,                                     !- Hour 6
  0,                                      !- Minute 6
  0.9,                                    !- Value Until Time 6
  18,                                     !- Hour 7
  0,                                      !- Minute 7
  0.8,                                    !- Value Until Time 7
  19,                                     !- Hour 8
  0,                                      !- Minute 8
  0.2,                                    !- Value Until Time 8
  24,                                     !- Hour 9
  0,                                      !- Minute 9
  0;                                      !- Value Until Time 9

OS:Schedule:Rule,
  {3eed9931-5233-48cc-8ed9-340598d776a4}, !- Handle
  Schedule Rule 3,                        !- Name
  {73400ff3-28a6-4d69-b3eb-eed88226d716}, !- Schedule Ruleset Name
  1,                                      !- Rule Order
  {7d725dfb-08d4-40b2-b93a-ebc0391bea7d}, !- Day Schedule Name
  ,                                       !- Apply Sunday
  ,                                       !- Apply Monday
  ,                                       !- Apply Tuesday
  ,                                       !- Apply Wednesday
  ,                                       !- Apply Thursday
  ,                                       !- Apply Friday
  Yes,                                    !- Apply Saturday
  ,                                       !- Apply Holiday
  DateRange,                              !- Date Specification Type
  1,                                      !- Start Month
  1,                                      !- Start Day
  12,                                     !- End Month
  31;                                     !- End Day

OS:Schedule:Day,
  {7d725dfb-08d4-40b2-b93a-ebc0391bea7d}, !- Handle
  NECB-E-Occupancy Sat Day,               !- Name
  {987292dd-1d76-438d-b4cf-73465fcb4d59}, !- Schedule Type Limits Name
  ,                                       !- Interpolate to Timestep
  9,                                      !- Hour 1
  0,                                      !- Minute 1
  0,                                      !- Value Until Time 1
  13,                                     !- Hour 2
  0,                                      !- Minute 2
  0.2,                                    !- Value Until Time 2
  17,                                     !- Hour 3
  0,                                      !- Minute 3
  0.1,                                    !- Value Until Time 3
  24,                                     !- Hour 4
  0,                                      !- Minute 4
  0;                                      !- Value Until Time 4

OS:Schedule:Rule,
  {56289a75-1a8f-4161-a87e-aef03e59919c}, !- Handle
  Schedule Rule 4,                        !- Name
  {73400ff3-28a6-4d69-b3eb-eed88226d716}, !- Schedule Ruleset Name
  0,                                      !- Rule Order
  {a82b6639-3960-4fdf-9c77-efa7aa1edebf}, !- Day Schedule Name
  Yes,                                    !- Apply Sunday
  ,                                       !- Apply Monday
  ,                                       !- Apply Tuesday
  ,                                       !- Apply Wednesday
  ,                                       !- Apply Thursday
  ,                                       !- Apply Friday
  ,                                       !- Apply Saturday
  ,                                       !- Apply Holiday
  DateRange,                              !- Date Specification Type
  1,                                      !- Start Month
  1,                                      !- Start Day
  12,                                     !- End Month
  31;                                     !- End Day

OS:Schedule:Day,
  {a82b6639-3960-4fdf-9c77-efa7aa1edebf}, !- Handle
  NECB-E-Occupancy Sun|Hol Day,           !- Name
  {987292dd-1d76-438d-b4cf-73465fcb4d59}, !- Schedule Type Limits Name
  ,                                       !- Interpolate to Timestep
  24,                                     !- Hour 1
  0,                                      !- Minute 1
  0;                                      !- Value Until Time 1

OS:Schedule:Ruleset,
  {38698cfb-ef04-46b3-b458-d63c06756bc4}, !- Handle
  NECB-Activity,                          !- Name
  {55de070b-93e2-4e3b-8908-f8c0fe85b84b}, !- Schedule Type Limits Name
  {1bbaae9f-3daa-4c60-91f2-6c19a79f0cfe}, !- Default Day Schedule Name
  {833cb46b-0ed8-41f8-820b-7b0f8c44c9e0}, !- Summer Design Day Schedule Name
  {39e3ceec-a2eb-4653-910a-a82246cb8b1a}; !- Winter Design Day Schedule Name

OS:Schedule:Day,
  {1bbaae9f-3daa-4c60-91f2-6c19a79f0cfe}, !- Handle
  NECB-Activity Default,                  !- Name
  {55de070b-93e2-4e3b-8908-f8c0fe85b84b}, !- Schedule Type Limits Name
  ,                                       !- Interpolate to Timestep
  24,                                     !- Hour 1
  0,                                      !- Minute 1
  130;                                    !- Value Until Time 1

OS:Schedule:Day,
  {5be21bed-fb4c-489f-ba80-2167124a2ca7}, !- Handle
  Schedule Day 1,                         !- Name
  ,                                       !- Schedule Type Limits Name
  ,                                       !- Interpolate to Timestep
  24,                                     !- Hour 1
  0,                                      !- Minute 1
  0;                                      !- Value Until Time 1

OS:Schedule:Day,
  {39e3ceec-a2eb-4653-910a-a82246cb8b1a}, !- Handle
  NECB-Activity Winter Design Day,        !- Name
  {55de070b-93e2-4e3b-8908-f8c0fe85b84b}, !- Schedule Type Limits Name
  ,                                       !- Interpolate to Timestep
  24,                                     !- Hour 1
  0,                                      !- Minute 1
  130;                                    !- Value Until Time 1

OS:Schedule:Day,
  {e276d189-aea9-45e3-834c-1670ee2c488b}, !- Handle
  Schedule Day 2,                         !- Name
  ,                                       !- Schedule Type Limits Name
  ,                                       !- Interpolate to Timestep
  24,                                     !- Hour 1
  0,                                      !- Minute 1
  0;                                      !- Value Until Time 1

OS:Schedule:Day,
  {833cb46b-0ed8-41f8-820b-7b0f8c44c9e0}, !- Handle
  NECB-Activity Summer Design Day,        !- Name
  {55de070b-93e2-4e3b-8908-f8c0fe85b84b}, !- Schedule Type Limits Name
  ,                                       !- Interpolate to Timestep
  24,                                     !- Hour 1
  0,                                      !- Minute 1
  130;                                    !- Value Until Time 1

OS:ScheduleTypeLimits,
  {55de070b-93e2-4e3b-8908-f8c0fe85b84b}, !- Handle
  ActivityLevel,                          !- Name
  0,                                      !- Lower Limit Value
  ,                                       !- Upper Limit Value
  Continuous,                             !- Numeric Type
  ActivityLevel;                          !- Unit Type

OS:Schedule:Ruleset,
  {9370f880-f30c-4915-bf76-d57842d2a10b}, !- Handle
  NECB-E-Lighting,                        !- Name
  {987292dd-1d76-438d-b4cf-73465fcb4d59}, !- Schedule Type Limits Name
  {06e048fd-8c93-4882-952d-c4a3c0db5811}; !- Default Day Schedule Name

OS:Schedule:Day,
  {06e048fd-8c93-4882-952d-c4a3c0db5811}, !- Handle
  NECB-E-Lighting Default,                !- Name
  {987292dd-1d76-438d-b4cf-73465fcb4d59}, !- Schedule Type Limits Name
  ,                                       !- Interpolate to Timestep
  8,                                      !- Hour 1
  0,                                      !- Minute 1
  0.05,                                   !- Value Until Time 1
  9,                                      !- Hour 2
  0,                                      !- Minute 2
  0.4,                                    !- Value Until Time 2
  10,                                     !- Hour 3
  0,                                      !- Minute 3
  0.7,                                    !- Value Until Time 3
  18,                                     !- Hour 4
  0,                                      !- Minute 4
  0.9,                                    !- Value Until Time 4
  19,                                     !- Hour 5
  0,                                      !- Minute 5
  0.4,                                    !- Value Until Time 5
  24,                                     !- Hour 6
  0,                                      !- Minute 6
  0.05;                                   !- Value Until Time 6

OS:Schedule:Rule,
  {0757a804-fc41-4f2e-a83d-a32fa288511e}, !- Handle
  Schedule Rule 5,                        !- Name
  {9370f880-f30c-4915-bf76-d57842d2a10b}, !- Schedule Ruleset Name
  2,                                      !- Rule Order
  {aab29d1f-7140-4895-9a2b-afea38e5fa06}, !- Day Schedule Name
  ,                                       !- Apply Sunday
  Yes,                                    !- Apply Monday
  Yes,                                    !- Apply Tuesday
  Yes,                                    !- Apply Wednesday
  Yes,                                    !- Apply Thursday
  Yes,                                    !- Apply Friday
  ,                                       !- Apply Saturday
  ,                                       !- Apply Holiday
  DateRange,                              !- Date Specification Type
  1,                                      !- Start Month
  1,                                      !- Start Day
  12,                                     !- End Month
  31;                                     !- End Day

OS:Schedule:Day,
  {aab29d1f-7140-4895-9a2b-afea38e5fa06}, !- Handle
  NECB-E-Lighting Default|Wkdy Day,       !- Name
  {987292dd-1d76-438d-b4cf-73465fcb4d59}, !- Schedule Type Limits Name
  ,                                       !- Interpolate to Timestep
  8,                                      !- Hour 1
  0,                                      !- Minute 1
  0.05,                                   !- Value Until Time 1
  9,                                      !- Hour 2
  0,                                      !- Minute 2
  0.4,                                    !- Value Until Time 2
  10,                                     !- Hour 3
  0,                                      !- Minute 3
  0.7,                                    !- Value Until Time 3
  18,                                     !- Hour 4
  0,                                      !- Minute 4
  0.9,                                    !- Value Until Time 4
  19,                                     !- Hour 5
  0,                                      !- Minute 5
  0.4,                                    !- Value Until Time 5
  24,                                     !- Hour 6
  0,                                      !- Minute 6
  0.05;                                   !- Value Until Time 6

OS:Schedule:Rule,
  {5ac7fb3a-9716-4c46-b1b4-864e46d26adc}, !- Handle
  Schedule Rule 6,                        !- Name
  {9370f880-f30c-4915-bf76-d57842d2a10b}, !- Schedule Ruleset Name
  1,                                      !- Rule Order
  {8656305a-3dac-430e-a220-f8b8b3de1c1f}, !- Day Schedule Name
  ,                                       !- Apply Sunday
  ,                                       !- Apply Monday
  ,                                       !- Apply Tuesday
  ,                                       !- Apply Wednesday
  ,                                       !- Apply Thursday
  ,                                       !- Apply Friday
  Yes,                                    !- Apply Saturday
  ,                                       !- Apply Holiday
  DateRange,                              !- Date Specification Type
  1,                                      !- Start Month
  1,                                      !- Start Day
  12,                                     !- End Month
  31;                                     !- End Day

OS:Schedule:Day,
  {8656305a-3dac-430e-a220-f8b8b3de1c1f}, !- Handle
  NECB-E-Lighting Sat Day,                !- Name
  {987292dd-1d76-438d-b4cf-73465fcb4d59}, !- Schedule Type Limits Name
  ,                                       !- Interpolate to Timestep
  9,                                      !- Hour 1
  0,                                      !- Minute 1
  0.05,                                   !- Value Until Time 1
  10,                                     !- Hour 2
  0,                                      !- Minute 2
  0.5,                                    !- Value Until Time 2
  15,                                     !- Hour 3
  0,                                      !- Minute 3
  0.9,                                    !- Value Until Time 3
  16,                                     !- Hour 4
  0,                                      !- Minute 4
  0.7,                                    !- Value Until Time 4
  17,                                     !- Hour 5
  0,                                      !- Minute 5
  0.5,                                    !- Value Until Time 5
  24,                                     !- Hour 6
  0,                                      !- Minute 6
  0.05;                                   !- Value Until Time 6

OS:Schedule:Rule,
  {11ba1899-e48a-472d-8787-b66bcd1487ac}, !- Handle
  Schedule Rule 7,                        !- Name
  {9370f880-f30c-4915-bf76-d57842d2a10b}, !- Schedule Ruleset Name
  0,                                      !- Rule Order
  {045de944-4ec1-439e-9a3e-b90f9618eddd}, !- Day Schedule Name
  Yes,                                    !- Apply Sunday
  ,                                       !- Apply Monday
  ,                                       !- Apply Tuesday
  ,                                       !- Apply Wednesday
  ,                                       !- Apply Thursday
  ,                                       !- Apply Friday
  ,                                       !- Apply Saturday
  ,                                       !- Apply Holiday
  DateRange,                              !- Date Specification Type
  1,                                      !- Start Month
  1,                                      !- Start Day
  12,                                     !- End Month
  31;                                     !- End Day

OS:Schedule:Day,
  {045de944-4ec1-439e-9a3e-b90f9618eddd}, !- Handle
  NECB-E-Lighting Sun|Hol Day,            !- Name